LTspice 24.0.12 for Windows
Circuit: *
Start Time: Tue Feb 11 13:47:46 2025
Fatal Error: No analysis request found.
