LTspice 24.0.12 for Windows
Circuit: *
Start Time: Mon Feb 17 10:42:34 2025
Fatal Error: No analysis request found.
