LTspice 24.0.12 for Windows
Circuit: *
Start Time: Fri Feb 14 12:50:00 2025
Fatal Error: No analysis request found.
